# Created by the Bilbao Crystallographic Server
# http://www.cryst.ehu.es
# Date: 06/06/2023 21:29:28

# POSCARL.vasp

# --- Magnetic Structure Data ---

data_VznkMdSz
_audit_creation_date               2023-06-06
_audit_creation_method             "Bilbao Crystallographic Server"
###non-st# _data_type "magnetic"
_space_group_magn.number_BNS  7.26
_space_group_magn.name_BNS  "?"
_space_group_magn.transform_BNS_Pp_abc  "a,b,c"
_cell_length_a                     5.11831
_cell_length_b                     5.29370
_cell_length_c                     8.30007
_cell_angle_alpha                  90.00000
_cell_angle_beta                   128.07246
_cell_angle_gamma                  90.00000

loop_
_space_group_symop_magn_operation.id
_space_group_symop_magn_operation.xyz
1   x,y,z,+1
2   x,-y,z+1/2,-1


loop_
_atom_site_label
_atom_site_type_symbol
_atom_site_fract_x
_atom_site_fract_y
_atom_site_fract_z
_atom_site_occupancy
Mn1 Mn 0.62605 0.82751 0.62439 1.0000
Mn2 Mn 0.87727 0.67249 0.37561 1.0000
N1 N 0.07729 0.86302 0.65918 1.0000
N2 N 0.25893 0.63698 0.34082 1.0000
N3 N 0.43851 0.79924 0.09157 1.0000
N4 N 0.75537 0.70076 -0.09157 1.0000
Si1 Si 0.13133 0.81806 0.12504 1.0000
Si2 Si 0.38125 0.68194 0.87496 1.0000

loop_
_atom_site_moment.label
_atom_site_moment.crystalaxis_x
_atom_site_moment.crystalaxis_y
_atom_site_moment.crystalaxis_z
Mn1 4.891 -0.007 0.953
Mn2 -4.896 -0.002 -0.963
N1 0.000 0.000 0.000
N2 0.000 0.000 0.000
N3 0.000 0.000 0.000
N4 0.000 0.000 0.000
Si1 0.000 0.000 0.000
Si2 0.000 0.000 0.000